* NGSPICE file created from classifier_top.ext - technology: ihp-sg13g2

* Black-box entry subcircuit for sg13g2_fill_2 abstract view
.subckt sg13g2_fill_2 VDD VSS
.ends

* Black-box entry subcircuit for sg13g2_decap_8 abstract view
.subckt sg13g2_decap_8 VDD VSS
.ends

* Black-box entry subcircuit for sg13g2_decap_4 abstract view
.subckt sg13g2_decap_4 VDD VSS
.ends

* Black-box entry subcircuit for sg13g2_fill_1 abstract view
.subckt sg13g2_fill_1 VDD VSS
.ends

* Black-box entry subcircuit for sg13g2_nor2_1 abstract view
.subckt sg13g2_nor2_1 A B Y VDD VSS
.ends

* Black-box entry subcircuit for sg13g2_a21o_1 abstract view
.subckt sg13g2_a21o_1 A2 A1 B1 X VDD VSS
.ends

* Black-box entry subcircuit for sg13g2_a21oi_1 abstract view
.subckt sg13g2_a21oi_1 VSS VDD A1 A2 Y B1
.ends

* Black-box entry subcircuit for sg13g2_o21ai_1 abstract view
.subckt sg13g2_o21ai_1 B1 VDD Y VSS A1 A2
.ends

* Black-box entry subcircuit for sg13g2_nand2_1 abstract view
.subckt sg13g2_nand2_1 Y A B VDD VSS
.ends

* Black-box entry subcircuit for sg13g2_xor2_1 abstract view
.subckt sg13g2_xor2_1 B A X VDD VSS
.ends

* Black-box entry subcircuit for sg13g2_nand2b_1 abstract view
.subckt sg13g2_nand2b_1 Y B A_N VDD VSS
.ends

* Black-box entry subcircuit for sg13g2_xnor2_1 abstract view
.subckt sg13g2_xnor2_1 Y A B VDD VSS
.ends

* Black-box entry subcircuit for sg13g2_dfrbpq_1 abstract view
.subckt sg13g2_dfrbpq_1 RESET_B VSS VDD D Q CLK
.ends

* Black-box entry subcircuit for sg13g2_dlygate4sd3_1 abstract view
.subckt sg13g2_dlygate4sd3_1 A VDD VSS X
.ends

* Black-box entry subcircuit for sg13g2_buf_1 abstract view
.subckt sg13g2_buf_1 A X VDD VSS
.ends

* Black-box entry subcircuit for sg13g2_inv_1 abstract view
.subckt sg13g2_inv_1 VDD Y A VSS
.ends

* Black-box entry subcircuit for sg13g2_buf_16 abstract view
.subckt sg13g2_buf_16 X A VDD VSS
.ends

* Black-box entry subcircuit for sg13g2_nor3_1 abstract view
.subckt sg13g2_nor3_1 A B C Y VDD VSS
.ends

* Black-box entry subcircuit for sg13g2_mux2_1 abstract view
.subckt sg13g2_mux2_1 A0 A1 S X VDD VSS
.ends

* Black-box entry subcircuit for sg13g2_nor2b_1 abstract view
.subckt sg13g2_nor2b_1 A B_N Y VDD VSS
.ends

* Black-box entry subcircuit for sg13g2_nand3_1 abstract view
.subckt sg13g2_nand3_1 B C A Y VDD VSS
.ends

* Black-box entry subcircuit for sg13g2_a221oi_1 abstract view
.subckt sg13g2_a221oi_1 VDD VSS B2 C1 B1 A1 Y A2
.ends

* Black-box entry subcircuit for sg13g2_a22oi_1 abstract view
.subckt sg13g2_a22oi_1 Y B1 B2 A2 A1 VDD VSS
.ends

* Black-box entry subcircuit for sg13g2_and2_1 abstract view
.subckt sg13g2_and2_1 A B X VDD VSS
.ends

* Black-box entry subcircuit for sg13g2_nand4_1 abstract view
.subckt sg13g2_nand4_1 B C A Y VDD VSS D
.ends

* Black-box entry subcircuit for sg13g2_or2_1 abstract view
.subckt sg13g2_or2_1 VSS VDD X B A
.ends

* Black-box entry subcircuit for sg13g2_nor4_1 abstract view
.subckt sg13g2_nor4_1 A B C D Y VDD VSS
.ends

* Black-box entry subcircuit for sg13g2_and3_1 abstract view
.subckt sg13g2_and3_1 X A B C VDD VSS
.ends

* Black-box entry subcircuit for sg13g2_and4_1 abstract view
.subckt sg13g2_and4_1 A B C D X VDD VSS
.ends

* Black-box entry subcircuit for sg13g2_nand3b_1 abstract view
.subckt sg13g2_nand3b_1 B C Y VDD VSS A_N
.ends

* Black-box entry subcircuit for sg13g2_or3_1 abstract view
.subckt sg13g2_or3_1 A B C X VDD VSS
.ends

.subckt classifier_top VGND VPWR acc20[0] acc20[10] acc20[11] acc20[12] acc20[13]
+ acc20[14] acc20[15] acc20[16] acc20[17] acc20[18] acc20[19] acc20[1] acc20[2] acc20[3]
+ acc20[4] acc20[5] acc20[6] acc20[7] acc20[8] acc20[9] class_id[0] class_id[1] class_id[2]
+ clk max_class[0] max_class[1] max_class[2] max_score[0] max_score[10] max_score[11]
+ max_score[12] max_score[13] max_score[14] max_score[15] max_score[16] max_score[17]
+ max_score[18] max_score[19] max_score[1] max_score[2] max_score[3] max_score[4]
+ max_score[5] max_score[6] max_score[7] max_score[8] max_score[9] new_class new_feat
+ rst_n w_int8[0] w_int8[1] w_int8[2] w_int8[3] w_int8[4] w_int8[5] w_int8[6] w_int8[7]
+ x_int4[0] x_int4[1] x_int4[2] x_int4[3]
XFILLER_22_100 VPWR VGND sg13g2_fill_2
XFILLER_22_111 VPWR VGND sg13g2_decap_8
XFILLER_22_144 VPWR VGND sg13g2_decap_4
XFILLER_3_78 VPWR VGND sg13g2_decap_8
XFILLER_9_137 VPWR VGND sg13g2_decap_4
XFILLER_27_214 VPWR VGND sg13g2_fill_1
XFILLER_8_170 VPWR VGND sg13g2_decap_8
XFILLER_8_181 VPWR VGND sg13g2_fill_1
X_0985_ net28 net67 _0493_ VPWR VGND sg13g2_nor2_1
XFILLER_5_4 VPWR VGND sg13g2_decap_4
X_0770_ net78 net151 _0307_ _0011_ VPWR VGND sg13g2_a21o_1
X_0968_ VGND VPWR _0056_ net66 _0031_ _0485_ sg13g2_a21oi_1
XFILLER_15_228 VPWR VGND sg13g2_fill_2
X_0899_ _0427_ VPWR _0428_ VGND net37 _0056_ sg13g2_o21ai_1
XFILLER_0_35 VPWR VGND sg13g2_decap_8
XFILLER_0_57 VPWR VGND sg13g2_fill_2
XFILLER_0_79 VPWR VGND sg13g2_decap_4
XFILLER_21_209 VPWR VGND sg13g2_fill_1
XFILLER_2_143 VPWR VGND sg13g2_fill_1
X_0684_ _0225_ net37 net72 VPWR VGND sg13g2_nand2_1
X_0753_ _0074_ _0290_ _0292_ VPWR VGND sg13g2_nor2_1
X_0822_ _0356_ net68 _0340_ VPWR VGND sg13g2_nand2_1
XFILLER_12_209 VPWR VGND sg13g2_fill_2
XFILLER_29_0 VPWR VGND sg13g2_decap_8
XFILLER_18_31 VPWR VGND sg13g2_decap_8
XFILLER_22_7 VPWR VGND sg13g2_decap_4
X_0598_ VGND VPWR net91 net12 _0142_ net34 sg13g2_a21oi_1
X_0667_ _0208_ _0198_ _0209_ VPWR VGND sg13g2_xor2_1
X_0736_ _0275_ net18 net14 VPWR VGND sg13g2_nand2b_1
X_0805_ _0340_ net24 net75 VPWR VGND sg13g2_xnor2_1
X_1021_ net85 VGND VPWR net111 net43 clknet_3_4__leaf_clk sg13g2_dfrbpq_1
XFILLER_20_32 VPWR VGND sg13g2_decap_8
XFILLER_29_63 VPWR VGND sg13g2_decap_8
XFILLER_29_74 VPWR VGND sg13g2_fill_1
Xhold96 _0024_ VPWR VGND net96 sg13g2_dlygate4sd3_1
X_0521_ _0069_ _0067_ _0068_ VPWR VGND sg13g2_nand2_1
X_1004_ net83 VGND VPWR _0016_ net26 clknet_3_6__leaf_clk sg13g2_dfrbpq_1
X_0719_ _0259_ _0249_ _0258_ VPWR VGND sg13g2_xnor2_1
XFILLER_16_164 VPWR VGND sg13g2_fill_1
Xoutput20 net20 acc20[10] VPWR VGND sg13g2_buf_1
Xoutput31 net31 acc20[2] VPWR VGND sg13g2_buf_1
Xoutput42 net42 max_score[0] VPWR VGND sg13g2_buf_1
Xoutput53 net53 max_score[1] VPWR VGND sg13g2_buf_1
XFILLER_22_189 VPWR VGND sg13g2_decap_4
X_0504_ VPWR _0053_ net110 VGND sg13g2_inv_1
XFILLER_26_42 VPWR VGND sg13g2_fill_1
XFILLER_3_57 VPWR VGND sg13g2_decap_8
Xclkbuf_3_6__f_clk clknet_3_6__leaf_clk clknet_0_clk VPWR VGND sg13g2_buf_16
XFILLER_8_193 VPWR VGND sg13g2_fill_1
X_0984_ _0492_ VPWR _0040_ VGND _0046_ net66 sg13g2_o21ai_1
XFILLER_27_237 VPWR VGND sg13g2_decap_4
XFILLER_6_119 VPWR VGND sg13g2_decap_4
XFILLER_5_196 VPWR VGND sg13g2_fill_1
XFILLER_23_32 VPWR VGND sg13g2_fill_1
X_0967_ net37 net66 _0485_ VPWR VGND sg13g2_nor2_1
X_0898_ _0427_ net48 net25 VPWR VGND sg13g2_nand2b_1
XFILLER_0_14 VPWR VGND sg13g2_decap_8
XFILLER_0_69 VPWR VGND sg13g2_fill_2
XFILLER_23_87 VPWR VGND sg13g2_fill_2
X_0752_ _0288_ VPWR _0291_ VGND _0269_ _0289_ sg13g2_o21ai_1
X_0821_ _0355_ net25 net75 VPWR VGND sg13g2_xnor2_1
X_0683_ _0207_ VPWR _0224_ VGND _0198_ _0208_ sg13g2_o21ai_1
XFILLER_18_65 VPWR VGND sg13g2_decap_4
X_0597_ VPWR _0141_ _0140_ VGND sg13g2_inv_1
X_0666_ _0208_ _0199_ _0206_ VPWR VGND sg13g2_xnor2_1
X_0735_ _0274_ _0054_ net72 VPWR VGND sg13g2_xnor2_1
X_0804_ _0339_ net24 net75 VPWR VGND sg13g2_nand2_1
X_1020_ net84 VGND VPWR net100 net61 clknet_3_4__leaf_clk sg13g2_dfrbpq_1
XFILLER_28_140 VPWR VGND sg13g2_fill_1
XFILLER_29_42 VPWR VGND sg13g2_decap_8
Xhold97 net42 VPWR VGND net97 sg13g2_dlygate4sd3_1
XFILLER_19_173 VPWR VGND sg13g2_decap_8
XFILLER_6_35 VPWR VGND sg13g2_fill_2
XFILLER_6_57 VPWR VGND sg13g2_decap_8
X_0520_ net8 net92 net30 _0068_ VPWR VGND sg13g2_a21o_1
X_1003_ net84 VGND VPWR _0015_ net25 clknet_3_4__leaf_clk sg13g2_dfrbpq_1
XFILLER_15_22 VPWR VGND sg13g2_decap_4
XFILLER_1_209 VPWR VGND sg13g2_decap_4
XFILLER_25_187 VPWR VGND sg13g2_fill_2
X_0649_ _0164_ _0167_ _0190_ _0192_ VPWR VGND sg13g2_nor3_1
X_0718_ _0258_ _0250_ _0255_ VPWR VGND sg13g2_xnor2_1
XFILLER_16_121 VPWR VGND sg13g2_decap_4
XFILLER_16_143 VPWR VGND sg13g2_fill_1
Xoutput21 net21 acc20[11] VPWR VGND sg13g2_buf_1
Xoutput32 net32 acc20[3] VPWR VGND sg13g2_buf_1
Xoutput43 net43 max_score[10] VPWR VGND sg13g2_buf_1
Xoutput54 net54 max_score[2] VPWR VGND sg13g2_buf_1
XFILLER_22_168 VPWR VGND sg13g2_decap_8
X_0503_ VPWR _0052_ net21 VGND sg13g2_inv_1
XFILLER_26_21 VPWR VGND sg13g2_decap_8
XFILLER_3_14 VPWR VGND sg13g2_decap_8
X_0983_ _0492_ net102 net66 VPWR VGND sg13g2_nand2_1
XFILLER_27_205 VPWR VGND sg13g2_decap_8
Xhold150 net24 VPWR VGND net150 sg13g2_dlygate4sd3_1
X_0966_ net36 net130 net67 _0030_ VPWR VGND sg13g2_mux2_1
X_0897_ _0426_ _0424_ _0425_ VPWR VGND sg13g2_nand2_1
XFILLER_0_59 VPWR VGND sg13g2_fill_1
XFILLER_23_66 VPWR VGND sg13g2_decap_4
XFILLER_9_13 VPWR VGND sg13g2_fill_2
XFILLER_9_35 VPWR VGND sg13g2_fill_1
X_0682_ _0223_ _0221_ _0222_ VPWR VGND sg13g2_nand2_1
X_0751_ _0269_ _0288_ _0289_ _0290_ VPWR VGND sg13g2_nor3_1
X_0820_ _0354_ net25 net75 VPWR VGND sg13g2_nand2_1
XFILLER_18_88 VPWR VGND sg13g2_fill_1
XFILLER_18_99 VPWR VGND sg13g2_decap_4
X_0949_ _0464_ _0477_ _0478_ VPWR VGND sg13g2_nor2b_1
XFILLER_15_8 VPWR VGND sg13g2_fill_1
XFILLER_1_0 VPWR VGND sg13g2_decap_8
X_0665_ _0207_ _0199_ _0206_ VPWR VGND sg13g2_nand2_1
X_0734_ _0273_ net20 net72 VPWR VGND sg13g2_nand2_1
X_0803_ net79 net143 _0338_ _0013_ VPWR VGND sg13g2_a21o_1
XFILLER_1_80 VPWR VGND sg13g2_decap_8
X_0596_ net91 net12 net34 _0140_ VPWR VGND sg13g2_nand3_1
XFILLER_29_21 VPWR VGND sg13g2_decap_8
XFILLER_6_25 VPWR VGND sg13g2_fill_1
Xhold98 _0023_ VPWR VGND net98 sg13g2_dlygate4sd3_1
X_0579_ net9 _0122_ net89 _0124_ VPWR VGND sg13g2_nand3_1
X_0648_ _0190_ VPWR _0191_ VGND _0164_ _0167_ sg13g2_o21ai_1
X_0717_ _0255_ _0250_ _0257_ VPWR VGND sg13g2_nor2b_1
X_1002_ net83 VGND VPWR _0014_ net24 clknet_3_4__leaf_clk sg13g2_dfrbpq_1
XFILLER_15_89 VPWR VGND sg13g2_decap_8
Xoutput22 net22 acc20[12] VPWR VGND sg13g2_buf_1
Xoutput33 net33 acc20[4] VPWR VGND sg13g2_buf_1
Xoutput44 net44 max_score[11] VPWR VGND sg13g2_buf_1
Xoutput55 net55 max_score[3] VPWR VGND sg13g2_buf_1
XFILLER_22_125 VPWR VGND sg13g2_fill_2
X_0502_ VPWR _0051_ net108 VGND sg13g2_inv_1
XFILLER_13_103 VPWR VGND sg13g2_fill_2
XFILLER_13_114 VPWR VGND sg13g2_decap_8
XFILLER_13_136 VPWR VGND sg13g2_decap_8
XFILLER_26_55 VPWR VGND sg13g2_fill_1
XFILLER_21_191 VPWR VGND sg13g2_decap_8
XFILLER_3_37 VPWR VGND sg13g2_fill_1
X_0982_ net26 net122 net66 _0039_ VPWR VGND sg13g2_mux2_1
XFILLER_12_24 VPWR VGND sg13g2_decap_8
XFILLER_12_35 VPWR VGND sg13g2_fill_2
Xhold140 net32 VPWR VGND net140 sg13g2_dlygate4sd3_1
Xhold151 net21 VPWR VGND net151 sg13g2_dlygate4sd3_1
X_0965_ net35 net132 net63 _0029_ VPWR VGND sg13g2_mux2_1
X_0896_ _0425_ net37 _0056_ VPWR VGND sg13g2_nand2_1
XFILLER_0_49 VPWR VGND sg13g2_decap_4
XFILLER_23_45 VPWR VGND sg13g2_decap_8
XFILLER_2_124 VPWR VGND sg13g2_decap_4
XFILLER_9_69 VPWR VGND sg13g2_decap_8
X_0681_ _0214_ _0188_ _0215_ _0222_ VPWR VGND sg13g2_a21o_1
X_0750_ _0264_ VPWR _0289_ VGND _0242_ _0265_ sg13g2_o21ai_1
Xfanout90 net16 net90 VPWR VGND sg13g2_buf_1
X_0948_ _0476_ VPWR _0477_ VGND _0462_ _0475_ sg13g2_o21ai_1
X_0879_ net71 VPWR _0410_ VGND _0399_ _0409_ sg13g2_o21ai_1
XFILLER_11_245 VPWR VGND sg13g2_fill_2
X_0802_ _0333_ _0336_ _0337_ _0338_ VPWR VGND sg13g2_nor3_1
XFILLER_27_0 VPWR VGND sg13g2_decap_8
XFILLER_29_109 VPWR VGND sg13g2_fill_1
X_0595_ _0128_ VPWR _0139_ VGND _0119_ _0129_ sg13g2_o21ai_1
X_0664_ _0206_ _0200_ _0205_ VPWR VGND sg13g2_xnor2_1
X_0733_ _0256_ VPWR _0272_ VGND _0249_ _0257_ sg13g2_o21ai_1
XFILLER_6_37 VPWR VGND sg13g2_fill_1
Xhold99 net61 VPWR VGND net99 sg13g2_dlygate4sd3_1
X_0578_ _0123_ net88 net9 VPWR VGND sg13g2_nand2_1
X_0647_ VPWR _0190_ _0189_ VGND sg13g2_inv_1
X_0716_ _0256_ _0255_ _0250_ VPWR VGND sg13g2_nand2b_1
X_1001_ net85 VGND VPWR _0013_ net23 clknet_3_4__leaf_clk sg13g2_dfrbpq_1
XFILLER_15_68 VPWR VGND sg13g2_decap_8
XFILLER_15_79 VPWR VGND sg13g2_fill_2
Xoutput23 net23 acc20[13] VPWR VGND sg13g2_buf_1
Xoutput34 net34 acc20[5] VPWR VGND sg13g2_buf_1
Xoutput45 net45 max_score[12] VPWR VGND sg13g2_buf_1
Xoutput56 net56 max_score[4] VPWR VGND sg13g2_buf_1
X_0501_ VPWR _0050_ net128 VGND sg13g2_inv_1
XFILLER_22_148 VPWR VGND sg13g2_fill_1
XFILLER_30_192 VPWR VGND sg13g2_fill_2
XFILLER_21_170 VPWR VGND sg13g2_decap_8
X_0981_ VGND VPWR _0047_ net65 _0038_ _0491_ sg13g2_a21oi_1
XFILLER_8_163 VPWR VGND sg13g2_decap_8
XFILLER_12_47 VPWR VGND sg13g2_fill_1
Xhold130 net59 VPWR VGND net130 sg13g2_dlygate4sd3_1
Xhold141 net27 VPWR VGND net141 sg13g2_dlygate4sd3_1
Xhold152 net36 VPWR VGND net152 sg13g2_dlygate4sd3_1
XFILLER_5_177 VPWR VGND sg13g2_fill_2
X_0964_ VGND VPWR _0057_ net63 _0028_ _0484_ sg13g2_a21oi_1
X_0895_ _0424_ net38 net61 VPWR VGND sg13g2_nand2b_1
XFILLER_4_92 VPWR VGND sg13g2_decap_4
XFILLER_9_15 VPWR VGND sg13g2_fill_1
X_0680_ _0220_ VPWR _0221_ VGND _0164_ _0167_ sg13g2_o21ai_1
Xfanout91 net92 net91 VPWR VGND sg13g2_buf_1
Xfanout80 net81 net80 VPWR VGND sg13g2_buf_1
XFILLER_18_24 VPWR VGND sg13g2_decap_8
X_0947_ VPWR VGND _0458_ _0460_ _0456_ _0045_ _0476_ net28 sg13g2_a221oi_1
X_0878_ _0407_ _0406_ _0409_ VPWR VGND sg13g2_xor2_1
Xclkload0 VPWR clkload0/Y clknet_3_1__leaf_clk VGND sg13g2_inv_1
X_0594_ _0114_ VPWR _0004_ VGND _0137_ _0138_ sg13g2_o21ai_1
X_0663_ _0205_ _0201_ _0202_ VPWR VGND sg13g2_xnor2_1
X_0732_ VPWR _0009_ _0271_ VGND sg13g2_inv_1
X_0801_ net71 VPWR _0337_ VGND _0321_ _0335_ sg13g2_o21ai_1
XFILLER_20_25 VPWR VGND sg13g2_decap_8
XFILLER_28_176 VPWR VGND sg13g2_decap_4
XFILLER_29_56 VPWR VGND sg13g2_decap_8
XFILLER_10_80 VPWR VGND sg13g2_decap_8
XFILLER_19_121 VPWR VGND sg13g2_decap_4
XFILLER_19_187 VPWR VGND sg13g2_fill_2
X_0715_ _0255_ _0228_ _0254_ VPWR VGND sg13g2_xnor2_1
X_1000_ net85 VGND VPWR _0012_ net22 clknet_3_5__leaf_clk sg13g2_dfrbpq_1
XFILLER_0_212 VPWR VGND sg13g2_decap_4
XFILLER_25_113 VPWR VGND sg13g2_fill_2
X_0577_ net8 net87 _0122_ VPWR VGND sg13g2_nor2b_1
X_0646_ _0189_ _0186_ _0187_ VPWR VGND sg13g2_xnor2_1
Xoutput24 net24 acc20[14] VPWR VGND sg13g2_buf_1
Xoutput35 net35 acc20[6] VPWR VGND sg13g2_buf_1
Xoutput46 net46 max_score[13] VPWR VGND sg13g2_buf_1
Xoutput57 net57 max_score[5] VPWR VGND sg13g2_buf_1
X_0500_ VPWR _0049_ net22 VGND sg13g2_inv_1
Xclkbuf_3_1__f_clk clknet_3_1__leaf_clk clknet_0_clk VPWR VGND sg13g2_buf_16
XFILLER_22_105 VPWR VGND sg13g2_fill_1
X_0629_ _0148_ VPWR _0172_ VGND _0145_ _0149_ sg13g2_o21ai_1
X_0980_ net25 net65 _0491_ VPWR VGND sg13g2_nor2_1
XFILLER_10_108 VPWR VGND sg13g2_fill_1
Xhold131 _0030_ VPWR VGND net131 sg13g2_dlygate4sd3_1
Xhold142 net25 VPWR VGND net142 sg13g2_dlygate4sd3_1
Xhold153 net38 VPWR VGND net153 sg13g2_dlygate4sd3_1
Xhold120 net54 VPWR VGND net120 sg13g2_dlygate4sd3_1
X_0963_ net34 net63 _0484_ VPWR VGND sg13g2_nor2_1
X_0894_ _0423_ net61 _0055_ _0054_ net43 VPWR VGND sg13g2_a22oi_1
XFILLER_23_25 VPWR VGND sg13g2_decap_8
XFILLER_0_29 VPWR VGND sg13g2_fill_2
XFILLER_2_115 VPWR VGND sg13g2_decap_4
XFILLER_9_49 VPWR VGND sg13g2_fill_2
Xfanout92 net15 net92 VPWR VGND sg13g2_buf_1
Xfanout81 net82 net81 VPWR VGND sg13g2_buf_1
Xfanout70 _0073_ net70 VPWR VGND sg13g2_buf_1
XFILLER_20_236 VPWR VGND sg13g2_fill_2
X_0946_ _0475_ _0474_ _0427_ _0470_ _0437_ VPWR VGND sg13g2_a22oi_1
X_0877_ _0406_ _0407_ _0408_ VPWR VGND sg13g2_and2_1
XFILLER_18_58 VPWR VGND sg13g2_decap_8
XFILLER_18_69 VPWR VGND sg13g2_fill_2
Xclkload1 VPWR clkload1/Y clknet_3_3__leaf_clk VGND sg13g2_inv_1
XFILLER_1_50 VPWR VGND sg13g2_fill_1
X_0593_ net70 VPWR _0138_ VGND _0135_ _0136_ sg13g2_o21ai_1
X_0662_ _0201_ _0202_ _0204_ VPWR VGND sg13g2_nor2b_1
X_0731_ _0271_ net70 _0270_ net78 net153 VPWR VGND sg13g2_a22oi_1
X_0800_ _0315_ _0332_ _0336_ VPWR VGND sg13g2_and2_1
XFILLER_28_100 VPWR VGND sg13g2_fill_2
XFILLER_28_155 VPWR VGND sg13g2_fill_2
XFILLER_29_35 VPWR VGND sg13g2_decap_8
X_0929_ _0457_ VPWR _0458_ VGND net50 _0046_ sg13g2_o21ai_1
XFILLER_3_221 VPWR VGND sg13g2_fill_1
XFILLER_15_26 VPWR VGND sg13g2_fill_1
X_0576_ _0121_ net90 net10 VPWR VGND sg13g2_nand2_1
X_0645_ _0188_ _0186_ _0187_ VPWR VGND sg13g2_nand2_1
X_0714_ _0254_ _0251_ _0252_ VPWR VGND sg13g2_xnor2_1
XFILLER_16_125 VPWR VGND sg13g2_fill_2
Xoutput25 net25 acc20[15] VPWR VGND sg13g2_buf_1
Xoutput36 net36 acc20[7] VPWR VGND sg13g2_buf_1
Xoutput47 net47 max_score[14] VPWR VGND sg13g2_buf_1
Xoutput58 net58 max_score[6] VPWR VGND sg13g2_buf_1
XFILLER_30_194 VPWR VGND sg13g2_fill_1
XFILLER_7_93 VPWR VGND sg13g2_decap_8
X_0628_ _0171_ _0169_ _0170_ VPWR VGND sg13g2_nand2_1
XFILLER_13_128 VPWR VGND sg13g2_fill_2
XFILLER_26_14 VPWR VGND sg13g2_decap_8
XFILLER_26_69 VPWR VGND sg13g2_fill_2
X_0559_ _0105_ _0095_ _0104_ VPWR VGND sg13g2_xnor2_1
XFILLER_12_194 VPWR VGND sg13g2_fill_1
Xhold132 net58 VPWR VGND net132 sg13g2_dlygate4sd3_1
Xhold143 net23 VPWR VGND net143 sg13g2_dlygate4sd3_1
Xhold154 net31 VPWR VGND net154 sg13g2_dlygate4sd3_1
Xhold121 _0025_ VPWR VGND net121 sg13g2_dlygate4sd3_1
Xhold110 net43 VPWR VGND net110 sg13g2_dlygate4sd3_1
XFILLER_5_179 VPWR VGND sg13g2_fill_1
XFILLER_23_201 VPWR VGND sg13g2_decap_8
XFILLER_23_59 VPWR VGND sg13g2_decap_8
XFILLER_4_190 VPWR VGND sg13g2_fill_1
XFILLER_4_83 VPWR VGND sg13g2_fill_1
X_0962_ VGND VPWR _0058_ net63 _0027_ _0483_ sg13g2_a21oi_1
X_0893_ _0422_ _0053_ net20 net21 _0051_ VPWR VGND sg13g2_a22oi_1
XFILLER_13_92 VPWR VGND sg13g2_decap_8
XFILLER_3_7 VPWR VGND sg13g2_decap_8
XFILLER_9_28 VPWR VGND sg13g2_decap_8
Xfanout82 net86 net82 VPWR VGND sg13g2_buf_1
Xfanout71 _0073_ net71 VPWR VGND sg13g2_buf_1
X_0945_ _0429_ VPWR _0474_ VGND _0434_ _0473_ sg13g2_o21ai_1
X_0876_ _0388_ VPWR _0407_ VGND _0373_ _0403_ sg13g2_o21ai_1
Xclkload2 VPWR clkload2/Y clknet_3_5__leaf_clk VGND sg13g2_inv_1
X_0592_ _0135_ _0136_ _0137_ VPWR VGND sg13g2_and2_1
X_0661_ net12 _0201_ net89 _0203_ VPWR VGND sg13g2_nand3_1
X_0730_ _0270_ _0265_ _0267_ VPWR VGND sg13g2_xnor2_1
XFILLER_29_14 VPWR VGND sg13g2_decap_8
X_0928_ _0457_ net26 net49 VPWR VGND sg13g2_nand2b_1
X_0859_ _0390_ _0389_ _0391_ VPWR VGND sg13g2_xor2_1
XFILLER_19_145 VPWR VGND sg13g2_fill_2
XFILLER_15_38 VPWR VGND sg13g2_fill_2
XFILLER_25_0 VPWR VGND sg13g2_decap_8
XFILLER_25_115 VPWR VGND sg13g2_fill_1
X_0575_ _0098_ VPWR _0120_ VGND _0096_ _0099_ sg13g2_o21ai_1
X_0644_ _0155_ VPWR _0187_ VGND _0117_ _0156_ sg13g2_o21ai_1
X_0713_ _0251_ _0252_ _0253_ VPWR VGND sg13g2_nor2b_1
Xoutput26 net26 acc20[16] VPWR VGND sg13g2_buf_1
Xoutput37 net37 acc20[8] VPWR VGND sg13g2_buf_1
Xoutput48 net48 max_score[15] VPWR VGND sg13g2_buf_1
Xoutput59 net59 max_score[7] VPWR VGND sg13g2_buf_1
XFILLER_21_92 VPWR VGND sg13g2_decap_8
XFILLER_22_118 VPWR VGND sg13g2_decap_8
XFILLER_30_173 VPWR VGND sg13g2_fill_2
XFILLER_7_61 VPWR VGND sg13g2_decap_4
XFILLER_21_184 VPWR VGND sg13g2_decap_8
XFILLER_26_48 VPWR VGND sg13g2_decap_8
X_0558_ _0101_ _0078_ _0104_ VPWR VGND sg13g2_xor2_1
X_0627_ net13 net91 net35 _0170_ VPWR VGND sg13g2_a21o_1
XFILLER_8_177 VPWR VGND sg13g2_decap_4
XFILLER_12_17 VPWR VGND sg13g2_decap_8
Xhold133 _0029_ VPWR VGND net133 sg13g2_dlygate4sd3_1
Xhold144 net35 VPWR VGND net144 sg13g2_dlygate4sd3_1
Xhold155 net28 VPWR VGND net155 sg13g2_dlygate4sd3_1
Xhold122 net49 VPWR VGND net122 sg13g2_dlygate4sd3_1
Xhold111 _0033_ VPWR VGND net111 sg13g2_dlygate4sd3_1
Xhold100 _0032_ VPWR VGND net100 sg13g2_dlygate4sd3_1
XFILLER_17_221 VPWR VGND sg13g2_fill_2
XFILLER_4_40 VPWR VGND sg13g2_decap_8
XFILLER_4_51 VPWR VGND sg13g2_fill_1
X_0961_ net33 net63 _0483_ VPWR VGND sg13g2_nor2_1
X_0892_ VGND VPWR net22 _0050_ _0421_ _0420_ sg13g2_a21oi_1
XFILLER_29_7 VPWR VGND sg13g2_decap_8
Xfanout83 net86 net83 VPWR VGND sg13g2_buf_1
Xfanout72 net76 net72 VPWR VGND sg13g2_buf_1
Xclkbuf_3_7__f_clk clknet_3_7__leaf_clk clknet_0_clk VPWR VGND sg13g2_buf_16
X_0944_ VPWR VGND _0472_ _0420_ _0430_ net22 _0473_ _0050_ sg13g2_a221oi_1
XFILLER_18_38 VPWR VGND sg13g2_fill_1
Xclkload3 VPWR clkload3/Y clknet_3_6__leaf_clk VGND sg13g2_inv_1
X_0875_ _0406_ _0384_ _0404_ VPWR VGND sg13g2_xnor2_1
XFILLER_24_92 VPWR VGND sg13g2_decap_4
X_0591_ _0136_ _0109_ _0111_ VPWR VGND sg13g2_nand2_1
X_0660_ _0202_ net89 net12 VPWR VGND sg13g2_nand2_1
X_0789_ _0325_ net23 net75 VPWR VGND sg13g2_xnor2_1
X_0927_ VGND VPWR net50 _0046_ _0456_ _0455_ sg13g2_a21oi_1
X_0858_ _0376_ VPWR _0390_ VGND _0355_ _0386_ sg13g2_o21ai_1
XFILLER_10_94 VPWR VGND sg13g2_decap_8
XFILLER_3_245 VPWR VGND sg13g2_fill_2
XFILLER_25_105 VPWR VGND sg13g2_decap_4
X_0574_ _0119_ _0117_ _0118_ VPWR VGND sg13g2_nand2_1
X_0643_ _0186_ _0140_ _0185_ VPWR VGND sg13g2_xnor2_1
X_0712_ net13 net18 _0252_ VPWR VGND sg13g2_nor2b_1
Xoutput27 net27 acc20[17] VPWR VGND sg13g2_buf_1
Xoutput38 net38 acc20[9] VPWR VGND sg13g2_buf_1
Xoutput49 net49 max_score[16] VPWR VGND sg13g2_buf_1
Xclkbuf_0_clk clknet_0_clk clk VPWR VGND sg13g2_buf_16
XFILLER_21_163 VPWR VGND sg13g2_decap_8
X_0557_ _0078_ _0101_ _0103_ VPWR VGND sg13g2_nor2_1
X_0626_ net91 net13 net35 _0169_ VPWR VGND sg13g2_nand3_1
XFILLER_12_152 VPWR VGND sg13g2_decap_4
XFILLER_12_174 VPWR VGND sg13g2_fill_1
XFILLER_16_71 VPWR VGND sg13g2_fill_1
XFILLER_29_230 VPWR VGND sg13g2_decap_8
Xhold134 net60 VPWR VGND net134 sg13g2_dlygate4sd3_1
Xhold145 net34 VPWR VGND net145 sg13g2_dlygate4sd3_1
Xhold156 net37 VPWR VGND net156 sg13g2_dlygate4sd3_1
Xhold123 _0039_ VPWR VGND net123 sg13g2_dlygate4sd3_1
Xhold112 net47 VPWR VGND net112 sg13g2_dlygate4sd3_1
Xhold101 net39 VPWR VGND net101 sg13g2_dlygate4sd3_1
XFILLER_5_115 VPWR VGND sg13g2_decap_4
X_0609_ _0153_ _0144_ _0151_ VPWR VGND sg13g2_xnor2_1
XFILLER_4_96 VPWR VGND sg13g2_fill_2
X_0960_ net32 net124 net62 _0026_ VPWR VGND sg13g2_mux2_1
X_0891_ net46 net23 _0420_ VPWR VGND sg13g2_nor2b_1
XFILLER_13_72 VPWR VGND sg13g2_fill_2
Xfanout84 net86 net84 VPWR VGND sg13g2_buf_1
Xfanout73 net76 net73 VPWR VGND sg13g2_buf_1
Xfanout62 net63 net62 VPWR VGND sg13g2_buf_1
XFILLER_18_17 VPWR VGND sg13g2_decap_8
X_0943_ _0472_ _0422_ _0471_ VPWR VGND sg13g2_nand2_1
X_0874_ _0405_ _0404_ _0384_ VPWR VGND sg13g2_nand2b_1
XFILLER_24_60 VPWR VGND sg13g2_decap_4
Xclkload4 VPWR clkload4/Y clknet_3_7__leaf_clk VGND sg13g2_inv_1
XFILLER_1_75 VPWR VGND sg13g2_fill_1
X_0590_ _0133_ _0107_ _0135_ VPWR VGND sg13g2_xor2_1
X_0926_ net28 net51 _0455_ VPWR VGND sg13g2_xor2_1
X_0857_ _0389_ _0372_ _0387_ VPWR VGND sg13g2_xnor2_1
XFILLER_10_51 VPWR VGND sg13g2_decap_4
XFILLER_10_73 VPWR VGND sg13g2_decap_8
XFILLER_29_49 VPWR VGND sg13g2_decap_8
X_0788_ _0324_ net23 net74 VPWR VGND sg13g2_nand2_1
XFILLER_19_125 VPWR VGND sg13g2_fill_1
XFILLER_19_93 VPWR VGND sg13g2_fill_1
X_0573_ net11 net91 net33 _0118_ VPWR VGND sg13g2_a21o_1
X_0642_ _0182_ _0168_ _0185_ VPWR VGND sg13g2_xor2_1
X_0711_ _0251_ net89 net14 VPWR VGND sg13g2_nand2_1
XFILLER_0_205 VPWR VGND sg13g2_decap_8
XFILLER_0_216 VPWR VGND sg13g2_fill_2
Xoutput28 net28 acc20[18] VPWR VGND sg13g2_buf_1
Xoutput39 net39 max_class[0] VPWR VGND sg13g2_buf_1
X_0909_ net35 net58 _0438_ VPWR VGND sg13g2_nor2b_1
XFILLER_24_194 VPWR VGND sg13g2_decap_8
XFILLER_26_28 VPWR VGND sg13g2_decap_4
XFILLER_30_0 VPWR VGND sg13g2_decap_8
X_0556_ _0102_ _0078_ _0101_ VPWR VGND sg13g2_nand2_1
X_0625_ _0152_ VPWR _0168_ VGND _0143_ _0153_ sg13g2_o21ai_1
XFILLER_16_50 VPWR VGND sg13g2_fill_1
XFILLER_21_120 VPWR VGND sg13g2_decap_4
XFILLER_8_124 VPWR VGND sg13g2_fill_2
XFILLER_8_135 VPWR VGND sg13g2_fill_1
X_0539_ _0086_ _0085_ _0084_ VPWR VGND sg13g2_nand2b_1
X_0608_ _0152_ _0144_ _0151_ VPWR VGND sg13g2_nand2_1
Xhold135 _0031_ VPWR VGND net135 sg13g2_dlygate4sd3_1
Xhold146 net26 VPWR VGND net146 sg13g2_dlygate4sd3_1
Xhold124 net55 VPWR VGND net124 sg13g2_dlygate4sd3_1
Xhold113 _0037_ VPWR VGND net113 sg13g2_dlygate4sd3_1
Xhold102 net50 VPWR VGND net102 sg13g2_dlygate4sd3_1
X_0890_ _0419_ VPWR _0019_ VGND _0074_ _0418_ sg13g2_o21ai_1
XFILLER_2_108 VPWR VGND sg13g2_decap_8
XFILLER_13_51 VPWR VGND sg13g2_fill_1
XFILLER_8_0 VPWR VGND sg13g2_decap_8
Xfanout85 net86 net85 VPWR VGND sg13g2_buf_1
Xfanout74 net76 net74 VPWR VGND sg13g2_buf_1
Xfanout63 net67 net63 VPWR VGND sg13g2_buf_1
X_0942_ _0471_ _0423_ _0426_ VPWR VGND sg13g2_nand2_1
X_0873_ _0403_ _0402_ _0404_ VPWR VGND sg13g2_xor2_1
XFILLER_1_7 VPWR VGND sg13g2_decap_8
XFILLER_1_21 VPWR VGND sg13g2_decap_8
XFILLER_1_32 VPWR VGND sg13g2_fill_2
XFILLER_29_28 VPWR VGND sg13g2_decap_8
X_0787_ _0308_ VPWR _0012_ VGND _0322_ _0323_ sg13g2_o21ai_1
X_0925_ _0451_ _0452_ _0446_ _0454_ VPWR VGND _0453_ sg13g2_nand4_1
X_0856_ _0388_ _0387_ _0372_ VPWR VGND sg13g2_nand2b_1
XFILLER_10_30 VPWR VGND sg13g2_decap_8
XFILLER_19_61 VPWR VGND sg13g2_fill_1
XFILLER_19_72 VPWR VGND sg13g2_decap_8
X_0641_ VGND VPWR _0184_ _0182_ _0168_ sg13g2_or2_1
X_0710_ VGND VPWR _0229_ _0233_ _0250_ _0232_ sg13g2_a21oi_1
XFILLER_25_129 VPWR VGND sg13g2_decap_4
X_0572_ net91 net11 net33 _0117_ VPWR VGND sg13g2_nand3_1
Xoutput29 net29 acc20[19] VPWR VGND sg13g2_buf_1
X_0908_ _0428_ _0435_ _0436_ _0437_ VPWR VGND sg13g2_nor3_1
X_0839_ _0372_ net26 net74 VPWR VGND sg13g2_nand2_1
XFILLER_15_151 VPWR VGND sg13g2_fill_1
XFILLER_7_42 VPWR VGND sg13g2_decap_4
XFILLER_7_86 VPWR VGND sg13g2_decap_8
X_0555_ _0101_ _0096_ _0100_ VPWR VGND sg13g2_xnor2_1
X_0624_ _0159_ VPWR _0167_ VGND _0134_ _0161_ sg13g2_o21ai_1
XFILLER_21_198 VPWR VGND sg13g2_decap_4
XFILLER_26_246 VPWR VGND sg13g2_fill_1
X_0538_ _0067_ VPWR _0085_ VGND _0066_ _0069_ sg13g2_o21ai_1
X_0607_ _0151_ _0145_ _0150_ VPWR VGND sg13g2_xnor2_1
Xhold136 net29 VPWR VGND net136 sg13g2_dlygate4sd3_1
Xhold147 net20 VPWR VGND net147 sg13g2_dlygate4sd3_1
Xhold125 _0026_ VPWR VGND net125 sg13g2_dlygate4sd3_1
Xhold114 net48 VPWR VGND net114 sg13g2_dlygate4sd3_1
Xhold103 _0040_ VPWR VGND net103 sg13g2_dlygate4sd3_1
XFILLER_4_76 VPWR VGND sg13g2_decap_8
XFILLER_13_74 VPWR VGND sg13g2_fill_1
Xfanout86 net6 net86 VPWR VGND sg13g2_buf_1
Xfanout75 net76 net75 VPWR VGND sg13g2_buf_1
Xfanout64 net66 net64 VPWR VGND sg13g2_buf_1
X_0941_ _0466_ _0469_ _0465_ _0470_ VPWR VGND sg13g2_nand3_1
X_0872_ _0403_ net69 _0385_ VPWR VGND sg13g2_nand2_1
XFILLER_27_7 VPWR VGND sg13g2_decap_8
XFILLER_28_138 VPWR VGND sg13g2_fill_2
X_0786_ _0321_ _0316_ _0074_ _0323_ VPWR VGND sg13g2_a21o_1
X_0924_ _0453_ net33 _0058_ net34 _0057_ VPWR VGND sg13g2_a22oi_1
X_0855_ _0386_ _0385_ _0387_ VPWR VGND sg13g2_xor2_1
XFILLER_19_138 VPWR VGND sg13g2_decap_8
XFILLER_25_119 VPWR VGND sg13g2_fill_1
X_0571_ _0102_ VPWR _0116_ VGND _0095_ _0103_ sg13g2_o21ai_1
X_0640_ _0168_ _0182_ _0183_ VPWR VGND sg13g2_and2_1
X_0907_ _0424_ _0425_ _0422_ _0436_ VPWR VGND _0429_ sg13g2_nand4_1
XFILLER_21_41 VPWR VGND sg13g2_decap_4
XFILLER_21_85 VPWR VGND sg13g2_decap_8
X_0769_ VGND VPWR _0304_ _0305_ _0307_ _0306_ sg13g2_a21oi_1
Xoutput19 net19 acc20[0] VPWR VGND sg13g2_buf_1
X_0838_ VPWR VGND _0223_ _0370_ _0367_ _0319_ _0371_ _0366_ sg13g2_a221oi_1
XFILLER_30_155 VPWR VGND sg13g2_fill_1
XFILLER_7_65 VPWR VGND sg13g2_fill_2
X_0554_ _0100_ _0077_ _0097_ VPWR VGND sg13g2_xnor2_1
X_0623_ net77 net145 _0166_ _0005_ VPWR VGND sg13g2_a21o_1
XFILLER_21_177 VPWR VGND sg13g2_decap_8
XFILLER_12_100 VPWR VGND sg13g2_fill_1
XFILLER_12_111 VPWR VGND sg13g2_fill_2
XFILLER_29_244 VPWR VGND sg13g2_fill_2
XFILLER_7_170 VPWR VGND sg13g2_decap_8
X_0537_ _0082_ _0080_ _0084_ VPWR VGND sg13g2_xor2_1
X_0606_ _0150_ _0146_ _0147_ VPWR VGND sg13g2_xnor2_1
Xhold137 net30 VPWR VGND net137 sg13g2_dlygate4sd3_1
Xhold148 net19 VPWR VGND net148 sg13g2_dlygate4sd3_1
Xhold126 net46 VPWR VGND net126 sg13g2_dlygate4sd3_1
Xhold115 _0038_ VPWR VGND net115 sg13g2_dlygate4sd3_1
Xhold104 net41 VPWR VGND net104 sg13g2_dlygate4sd3_1
XFILLER_4_33 VPWR VGND sg13g2_decap_8
Xclkbuf_3_2__f_clk clknet_3_2__leaf_clk clknet_0_clk VPWR VGND sg13g2_buf_16
Xfanout87 net18 net87 VPWR VGND sg13g2_buf_1
Xfanout76 _0196_ net76 VPWR VGND sg13g2_buf_1
Xfanout65 net66 net65 VPWR VGND sg13g2_buf_1
XFILLER_1_110 VPWR VGND sg13g2_fill_2
XFILLER_1_132 VPWR VGND sg13g2_fill_1
X_0940_ _0468_ _0453_ _0442_ _0469_ VPWR VGND sg13g2_a21o_1
X_0871_ _0402_ net28 net74 VPWR VGND sg13g2_xnor2_1
XFILLER_24_85 VPWR VGND sg13g2_decap_8
XFILLER_24_96 VPWR VGND sg13g2_fill_1
X_0785_ _0316_ _0321_ _0322_ VPWR VGND sg13g2_nor2_1
X_0923_ _0452_ _0061_ net42 _0060_ net53 VPWR VGND sg13g2_a22oi_1
X_0854_ _0386_ net69 _0373_ VPWR VGND sg13g2_nand2_1
XFILLER_10_87 VPWR VGND sg13g2_decap_8
XFILLER_18_4 VPWR VGND sg13g2_decap_4
X_0570_ VGND VPWR net32 _0094_ _0115_ _0092_ sg13g2_a21oi_1
X_0699_ _0239_ _0197_ _0240_ VPWR VGND sg13g2_xor2_1
X_0768_ net70 VPWR _0306_ VGND _0304_ _0305_ sg13g2_o21ai_1
X_0906_ _0423_ _0430_ _0421_ _0435_ VPWR VGND _0433_ sg13g2_nand4_1
X_0837_ _0368_ _0361_ _0369_ _0370_ VPWR VGND sg13g2_a21o_1
XFILLER_30_145 VPWR VGND sg13g2_fill_1
X_0553_ VGND VPWR net8 net88 _0099_ _0097_ sg13g2_a21oi_1
X_0622_ _0163_ _0164_ _0165_ _0166_ VPWR VGND sg13g2_nor3_1
XFILLER_12_145 VPWR VGND sg13g2_decap_8
XFILLER_12_167 VPWR VGND sg13g2_decap_8
XFILLER_8_105 VPWR VGND sg13g2_fill_1
XFILLER_7_160 VPWR VGND sg13g2_fill_1
X_0536_ _0078_ _0079_ _0082_ _0083_ VPWR VGND sg13g2_nor3_1
X_0605_ _0146_ _0147_ _0149_ VPWR VGND sg13g2_nor2b_1
Xhold138 _0076_ VPWR VGND net138 sg13g2_dlygate4sd3_1
Xhold149 net22 VPWR VGND net149 sg13g2_dlygate4sd3_1
Xhold127 _0036_ VPWR VGND net127 sg13g2_dlygate4sd3_1
Xhold116 net51 VPWR VGND net116 sg13g2_dlygate4sd3_1
Xhold105 net40 VPWR VGND net105 sg13g2_dlygate4sd3_1
XFILLER_17_237 VPWR VGND sg13g2_fill_1
XFILLER_5_108 VPWR VGND sg13g2_decap_8
X_1019_ net83 VGND VPWR net135 net60 clknet_3_7__leaf_clk sg13g2_dfrbpq_1
XFILLER_4_163 VPWR VGND sg13g2_fill_2
XFILLER_4_23 VPWR VGND sg13g2_decap_4
XFILLER_4_56 VPWR VGND sg13g2_fill_1
X_0519_ net92 net8 net30 _0067_ VPWR VGND sg13g2_nand3_1
XFILLER_13_65 VPWR VGND sg13g2_decap_8
Xfanout88 net89 net88 VPWR VGND sg13g2_buf_1
Xfanout77 net79 net77 VPWR VGND sg13g2_buf_1
Xfanout66 net67 net66 VPWR VGND sg13g2_buf_1
X_0870_ net28 net74 _0401_ VPWR VGND sg13g2_nor2b_1
X_0999_ net85 VGND VPWR _0011_ net21 clknet_3_5__leaf_clk sg13g2_dfrbpq_1
XFILLER_24_53 VPWR VGND sg13g2_decap_8
XFILLER_24_64 VPWR VGND sg13g2_fill_2
XFILLER_6_0 VPWR VGND sg13g2_decap_8
X_0784_ VGND VPWR _0223_ _0320_ _0321_ _0319_ sg13g2_a21oi_1
X_0922_ _0447_ _0448_ _0449_ _0450_ _0451_ VPWR VGND sg13g2_nor4_1
X_0853_ _0385_ net27 net74 VPWR VGND sg13g2_xnor2_1