*SPEF "ieee 1481-1999"
*DESIGN "classifier_top"
*DATE "21:25:59 Sunday February 08, 2026"
*VENDOR "The OpenROAD Project"
*PROGRAM "OpenROAD"
*VERSION "dfc4f595dfb2e1c346492ff1f0274abb28725acf"
*DESIGN_FLOW "NAME_SCOPE LOCAL" "PIN_CAP NONE"
*DIVIDER /
*DELIMITER :
*BUS_DELIMITER []
*T_UNIT 1 NS
*C_UNIT 1 PF
*R_UNIT 1 OHM
*L_UNIT 1 HENRY

*NAME_MAP
*3 acc20[0]
*4 acc20[10]
*5 acc20[11]
*6 acc20[12]
*7 acc20[13]
*8 acc20[14]
*9 acc20[15]
*10 acc20[16]
*11 acc20[17]
*12 acc20[18]
*13 acc20[19]
*14 acc20[1]
*15 acc20[2]
*16 acc20[3]
*17 acc20[4]
*18 acc20[5]
*19 acc20[6]
*20 acc20[7]
*21 acc20[8]
*22 acc20[9]
*23 class_id[0]
*24 class_id[1]
*25 class_id[2]
*26 clk
*27 max_class[0]
*28 max_class[1]
*29 max_class[2]
*30 max_score[0]
*31 max_score[10]
*32 max_score[11]
*33 max_score[12]
*34 max_score[13]
*35 max_score[14]
*36 max_score[15]
*37 max_score[16]
*38 max_score[17]
*39 max_score[18]
*40 max_score[19]
*41 max_score[1]
*42 max_score[2]
*43 max_score[3]
*44 max_score[4]
*45 max_score[5]
*46 max_score[6]
*47 max_score[7]
*48 max_score[8]
*49 max_score[9]
*50 new_class
*51 new_feat
*52 rst_n
*53 w_int8[0]
*54 w_int8[1]
*55 w_int8[2]
*56 w_int8[3]
*57 w_int8[4]
*58 w_int8[5]
*59 w_int8[6]
*60 w_int8[7]
*61 x_int4[0]
*62 x_int4[1]
*63 x_int4[2]
*64 x_int4[3]
*65 _0000_
*66 _0001_
*67 _0002_
*68 _0003_
*69 _0004_
*70 _0005_
*71 _0006_
*72 _0007_
*73 _0008_
*74 _0009_
*75 _0010_
*76 _0011_
*77 _0012_
*78 _0013_
*79 _0014_
*80 _0015_
*81 _0016_
*82 _0017_
*83 _0018_
*84 _0019_
*85 _0020_
*86 _0021_
*87 _0022_
*88 _0023_
*89 _0024_
*90 _0025_
*91 _0026_
*92 _0027_
*93 _0028_
*94 _0029_
*95 _0030_
*96 _0031_
*97 _0032_
*98 _0033_
*99 _0034_
*100 _0035_
*101 _0036_
*102 _0037_
*103 _0038_
*104 _0039_
*105 _0040_
*106 _0041_
*107 _0042_
*108 _0043_
*109 _0044_
*110 _0045_
*111 _0046_
*112 _0047_
*113 _0048_
*114 _0049_
*115 _0050_
*116 _0051_
*117 _0052_
*118 _0053_
*119 _0054_
*120 _0055_
*121 _0056_
*122 _0057_
*123 _0058_
*124 _0059_
*125 _0060_
*126 _0061_
*127 _0062_
*128 _0063_
*129 _0064_
*130 _0065_
*131 _0066_
*132 _0067_
*133 _0068_
*134 _0069_
*135 _0070_
*136 _0071_
*137 _0072_
*138 _0073_
*139 _0074_
*140 _0075_
*141 _0076_
*142 _0077_
*143 _0078_
*144 _0079_
*145 _0080_
*146 _0081_
*147 _0082_
*148 _0083_
*149 _0084_
*150 _0085_
*151 _0086_
*152 _0087_
*153 _0088_
*154 _0089_
*155 _0090_
*156 _0091_
*157 _0092_
*158 _0093_
*159 _0094_
*160 _0095_
*161 _0096_
*162 _0097_
*163 _0098_
*164 _0099_
*165 _0100_
*166 _0101_
*167 _0102_
*168 _0103_
*169 _0104_
*170 _0105_
*171 _0106_
*172 _0107_
*173 _0108_
*174 _0109_
*175 _0110_
*176 _0111_
*177 _0112_
*178 _0113_
*179 _0114_
*180 _0115_
*181 _0116_
*182 _0117_
*183 _0118_
*184 _0119_
*185 _0120_
*186 _0121_
*187 _0122_
*188 _0123_
*189 _0124_
*190 _0125_
*191 _0126_
*192 _0127_
*193 _0128_
*194 _0129_
*195 _0130_
*196 _0131_
*197 _0132_
*198 _0133_
*199 _0134_
*200 _0135_
*201 _0136_
*202 _0137_
*203 _0138_
*204 _0139_
*205 _0140_
*206 _0141_
*207 _0142_
*208 _0143_
*209 _0144_
*210 _0145_
*211 _0146_
*212 _0147_
*213 _0148_
*214 _0149_
*215 _0150_
*216 _0151_
*217 _0152_
*218 _0153_
*219 _0154_
*220 _0155_
*221 _0156_
*222 _0157_
*223 _0158_
*224 _0159_
*225 _0160_
*226 _0161_
*227 _0162_
*228 _0163_
*229 _0164_
*230 _0165_
*231 _0166_
*232 _0167_
*233 _0168_
*234 _0169_
*235 _0170_
*236 _0171_
*237 _0172_
*238 _0173_
*239 _0174_
*240 _0175_
*241 _0176_
*242 _0177_
*243 _0178_
*244 _0179_
*245 _0180_
*246 _0181_
*247 _0182_
*248 _0183_
*249 _0184_
*250 _0185_
*251 _0186_
*252 _0187_
*253 _0188_
*254 _0189_
*255 _0190_
*256 _0191_
*257 _0192_
*258 _0193_
*259 _0194_
*260 _0195_
*261 _0196_
*262 _0197_
*263 _0198_
*264 _0199_
*265 _0200_
*266 _0201_
*267 _0202_
*268 _0203_
*269 _0204_
*270 _0205_
*271 _0206_
*272 _0207_
*273 _0208_
*274 _0209_
*275 _0210_
*276 _0211_
*277 _0212_
*278 _0213_
*279 _0214_
*280 _0215_
*281 _0216_
*282 _0217_
*283 _0218_
*284 _0219_
*285 _0220_
*286 _0221_
*287 _0222_
*288 _0223_
*289 _0224_
*290 _0225_
*291 _0226_
*292 _0227_
*293 _0228_
*294 _0229_
*295 _0230_
*296 _0231_
*297 _0232_
*298 _0233_
*299 _0234_
*300 _0235_
*301 _0236_
*302 _0237_
*303 _0238_
*304 _0239_
*305 _0240_
*306 _0241_
*307 _0242_
*308 _0243_
*309 _0244_
*310 _0245_
*311 _0246_
*312 _0247_
*313 _0248_
*314 _0249_
*315 _0250_
*316 _0251_
*317 _0252_
*318 _0253_
*319 _0254_
*320 _0255_
*321 _0256_
*322 _0257_
*323 _0258_
*324 _0259_
*325 _0260_
*326 _0261_
*327 _0262_
*328 _0263_
*329 _0264_
*330 _0265_
*331 _0266_
*332 _0267_
*333 _0268_
*334 _0269_
*335 _0270_
*336 _0271_
*337 _0272_
*338 _0273_
*339 _0274_
*340 _0275_
*341 _0276_
*342 _0277_
*343 _0278_
*344 _0279_
*345 _0280_
*346 _0281_
*347 _0282_
*348 _0283_
*349 _0284_
*350 _0285_
*351 _0286_
*352 _0287_
*353 _0288_
*354 _0289_
*355 _0290_
*356 _0291_
*357 _0292_
*358 _0293_
*359 _0294_
*360 _0295_
*361 _0296_
*362 _0297_
*363 _0298_
*364 _0299_
*365 _0300_
*366 _0301_
*367 _0302_
*368 _0303_
*369 _0304_
*370 _0305_
*371 _0306_
*372 _0307_
*373 _0308_
*374 _0309_
*375 _0310_
*376 _0311_
*377 _0312_
*378 _0313_
*379 _0314_
*380 _0315_
*381 _0316_
*382 _0317_
*383 _0318_
*384 _0319_
*385 _0320_
*386 _0321_
*387 _0322_
*388 _0323_
*389 _0324_
*390 _0325_
*391 _0326_
*392 _0327_
*393 _0328_
*394 _0329_
*395 _0330_
*396 _0331_
*397 _0332_
*398 _0333_
*399 _0334_
*400 _0335_
*401 _0336_
*402 _0337_
*403 _0338_
*404 _0339_
*405 _0340_
*406 _0341_
*407 _0342_
*408 _0343_
*409 _0344_
*410 _0345_
*411 _0346_
*412 _0347_
*413 _0348_
*414 _0349_
*415 _0350_
*416 _0351_
*417 _0352_
*418 _0353_
*419 _0354_
*420 _0355_
*421 _0356_
*422 _0357_
*423 _0358_
*424 _0359_
*425 _0360_
*426 _0361_
*427 _0362_
*428 _0363_
*429 _0364_
*430 _0365_
*431 _0366_
*432 _0367_
*433 _0368_
*434 _0369_
*435 _0370_
*436 _0371_
*437 _0372_
*438 _0373_
*439 _0374_
*440 _0375_
*441 _0376_
*442 _0377_
*443 _0378_
*444 _0379_
*445 _0380_
*446 _0381_
*447 _0382_
*448 _0383_
*449 _0384_
*450 _0385_
*451 _0386_
*452 _0387_
*453 _0388_
*454 _0389_
*455 _0390_
*456 _0391_
*457 _0392_
*458 _0393_
*459 _0394_
*460 _0395_
*461 _0396_
*462 _0397_
*463 _0398_
*464 _0399_
*465 _0400_
*466 _0401_
*467 _0402_
*468 _0403_
*469 _0404_
*470 _0405_
*471 _0406_
*472 _0407_
*473 _0408_
*474 _0409_
*475 _0410_
*476 _0411_
*477 _0412_
*478 _0413_
*479 _0414_
*480 _0415_
*481 _0416_
*482 _0417_
*483 _0418_
*484 _0419_
*485 _0420_
*486 _0421_
*487 _0422_
*488 _0423_
*489 _0424_
*490 _0425_
*491 _0426_
*492 _0427_
*493 _0428_
*494 _0429_
*495 _0430_
*496 _0431_
*497 _0432_
*498 _0433_
*499 _0434_
*500 _0435_
*501 _0436_
*502 _0437_
*503 _0438_
*504 _0439_
*505 _0440_
*506 _0441_
*507 _0442_
*508 _0443_
*509 _0444_
*510 _0445_
*511 _0446_
*512 _0447_
*513 _0448_
*514 _0449_
*515 _0450_
*516 _0451_
*517 _0452_
*518 _0453_
*519 _0454_
*520 _0455_
*521 _0456_
*522 _0457_
*523 _0458_
*524 _0459_
*525 _0460_
*526 _0461_
*527 _0462_
*528 _0463_
*529 _0464_
*530 _0465_
*531 _0466_
*532 _0467_
*533 _0468_
*534 _0469_
*535 _0470_
*536 _0471_
*537 _0472_
*538 _0473_
*539 _0474_
*540 _0475_
*541 _0476_
*542 _0477_
*543 _0478_
*544 _0479_
*545 _0480_
*546 _0481_
*547 _0482_
*548 _0483_
*549 _0484_
*550 _0485_
*551 _0486_
*552 _0487_
*553 _0488_
*554 _0489_
*555 _0490_
*556 _0491_
*557 _0492_
*558 _0493_
*559 clknet_0_clk
*560 clknet_3_0__leaf_clk
*561 clknet_3_1__leaf_clk
*562 clknet_3_2__leaf_clk
*563 clknet_3_3__leaf_clk
*564 clknet_3_4__leaf_clk
*565 clknet_3_5__leaf_clk
*566 clknet_3_6__leaf_clk
*567 clknet_3_7__leaf_clk
*568 net1
*569 net10
*570 net100
*571 net101
*572 net102
*573 net103
*574 net104
*575 net105
*576 net106
*577 net107
*578 net108
*579 net109
*580 net11
*581 net110
*582 net111
*583 net112
*584 net113
*585 net114
*586 net115
*587 net116
*588 net117
*589 net118
*590 net119
*591 net12
*592 net120
*593 net121
*594 net122
*595 net123
*596 net124
*597 net125
*598 net126
*599 net127
*600 net128
*601 net129
*602 net13
*603 net130
*604 net131
*605 net132
*606 net133
*607 net134
*608 net135
*609 net136
*610 net137
*611 net138
*612 net139
*613 net14
*614 net140
*615 net141
*616 net142
*617 net143
*618 net144
*619 net145
*620 net146
*621 net147
*622 net148
*623 net149
*624 net15
*625 net150
*626 net151
*627 net152
*628 net153
*629 net154
*630 net155
*631 net156
*632 net16
*633 net17
*634 net18
*635 net19
*636 net2
*637 net20
*638 net21
*639 net22
*640 net23
*641 net24
*642 net25
*643 net26
*644 net27
*645 net28
*646 net29
*647 net3
*648 net30
*649 net31
*650 net32
*651 net33
*652 net34
*653 net35
*654 net36
*655 net37
*656 net38
*657 net39
*658 net4
*659 net40
*660 net41
*661 net42
*662 net43
*663 net44
*664 net45
*665 net46
*666 net47
*667 net48
*668 net49
*669 net5
*670 net50
*671 net51
*672 net52
*673 net53
*674 net54
*675 net55
*676 net56
*677 net57
*678 net58
*679 net59
*680 net6
*681 net60
*682 net61
*683 net62
*684 net63
*685 net64
*686 net65
*687 net66
*688 net67
*689 net68
*690 net69
*691 net7
*692 net70
*693 net71
*694 net72
*695 net73
*696 net74
*697 net75
*698 net76
*699 net77
*700 net78
*701 net79
*702 net8
*703 net80
*704 net81
*705 net82
*706 net83
*707 net84
*708 net85
*709 net86
*710 net87
*711 net88
*712 net89
*713 net9
*714 net90
*715 net91
*716 net92
*717 net93
*718 net94
*719 net95
*720 net96
*721 net97
*722 net98
*723 net99
*724 FILLER_0_0
*725 FILLER_0_101
*726 FILLER_0_108
*727 FILLER_0_113
*728 FILLER_0_117
*729 FILLER_0_123
*730 FILLER_0_131
*731 FILLER_0_138
*732 FILLER_0_14
*733 FILLER_0_152
*734 FILLER_0_156
*735 FILLER_0_161
*736 FILLER_0_168
*737 FILLER_0_175
*738 FILLER_0_177
*739 FILLER_0_191
*740 FILLER_0_198
*741 FILLER_0_205
*742 FILLER_0_21
*743 FILLER_0_212
*744 FILLER_0_216
*745 FILLER_0_29
*746 FILLER_0_35
*747 FILLER_0_42
*748 FILLER_0_49
*749 FILLER_0_57
*750 FILLER_0_59
*751 FILLER_0_69
*752 FILLER_0_7
*753 FILLER_0_79
*754 FILLER_0_87
*755 FILLER_0_91
*756 FILLER_10_101
*757 FILLER_10_108
*758 FILLER_10_113
*759 FILLER_10_120
*760 FILLER_10_122
*761 FILLER_10_196
*762 FILLER_10_198
*763 FILLER_10_203
*764 FILLER_10_218
*765 FILLER_10_30
*766 FILLER_10_37
*767 FILLER_10_4
*768 FILLER_10_44
*769 FILLER_10_51
*770 FILLER_10_73
*771 FILLER_10_8
*772 FILLER_10_80
*773 FILLER_10_87
*774 FILLER_10_94
*775 FILLER_11_107
*776 FILLER_11_114
*777 FILLER_11_121
*778 FILLER_11_125
*779 FILLER_11_135
*780 FILLER_11_142
*781 FILLER_11_149
*782 FILLER_11_151
*783 FILLER_11_165
*784 FILLER_11_196
*785 FILLER_11_22
*786 FILLER_11_245
*787 FILLER_11_35
*788 FILLER_11_48
*789 FILLER_11_55
*790 FILLER_11_65
*791 FILLER_11_69
*792 FILLER_11_88
*793 FILLER_11_92
*794 FILLER_12_100
*795 FILLER_12_111
*796 FILLER_12_116
*797 FILLER_12_145
*798 FILLER_12_152
*799 FILLER_12_159
*800 FILLER_12_167
*801 FILLER_12_17
*802 FILLER_12_174
*803 FILLER_12_194
*804 FILLER_12_209
*805 FILLER_12_24
*806 FILLER_12_31
*807 FILLER_12_35
*808 FILLER_12_47
*809 FILLER_12_60
*810 FILLER_12_80
*811 FILLER_12_84
*812 FILLER_13_0
*813 FILLER_13_103
*814 FILLER_13_114
*815 FILLER_13_121
*816 FILLER_13_128
*817 FILLER_13_130
*818 FILLER_13_136
*819 FILLER_13_143
*820 FILLER_13_150
*821 FILLER_13_17
*822 FILLER_13_181
*823 FILLER_13_19
*824 FILLER_13_245
*825 FILLER_13_25
*826 FILLER_13_29
*827 FILLER_13_47
*828 FILLER_13_51
*829 FILLER_13_65
*830 FILLER_13_72
*831 FILLER_13_74
*832 FILLER_13_92
*833 FILLER_13_99
*834 FILLER_14_121
*835 FILLER_14_161
*836 FILLER_14_163
*837 FILLER_14_191
*838 FILLER_14_22
*839 FILLER_14_29
*840 FILLER_14_33
*841 FILLER_14_43
*842 FILLER_14_54
*843 FILLER_14_61
*844 FILLER_14_68
*845 FILLER_14_75
*846 FILLER_14_82
*847 FILLER_14_86
*848 FILLER_15_103
*849 FILLER_15_114
*850 FILLER_15_116
*851 FILLER_15_151
*852 FILLER_15_199
*853 FILLER_15_201
*854 FILLER_15_22
*855 FILLER_15_228
*856 FILLER_15_26
*857 FILLER_15_31
*858 FILLER_15_38
*859 FILLER_15_52
*860 FILLER_15_61
*861 FILLER_15_68
*862 FILLER_15_75
*863 FILLER_15_79
*864 FILLER_15_8
*865 FILLER_15_89
*866 FILLER_15_96
*867 FILLER_16_121
*868 FILLER_16_125
*869 FILLER_16_143
*870 FILLER_16_162
*871 FILLER_16_164
*872 FILLER_16_23
*873 FILLER_16_25
*874 FILLER_16_34
*875 FILLER_16_4
*876 FILLER_16_43
*877 FILLER_16_50
*878 FILLER_16_56
*879 FILLER_16_58
*880 FILLER_16_71
*881 FILLER_16_8
*882 FILLER_17_0
*883 FILLER_17_103
*884 FILLER_17_110
*885 FILLER_17_117
*886 FILLER_17_124
*887 FILLER_17_126
*888 FILLER_17_140
*889 FILLER_17_147
*890 FILLER_17_154
*891 FILLER_17_161
*892 FILLER_17_168
*893 FILLER_17_175
*894 FILLER_17_182
*895 FILLER_17_195
*896 FILLER_17_206
*897 FILLER_17_221
*898 FILLER_17_237
*899 FILLER_17_26
*900 FILLER_17_38
*901 FILLER_17_45
*902 FILLER_17_49
*903 FILLER_17_68
*904 FILLER_17_86
*905 FILLER_17_93
*906 FILLER_17_97
*907 FILLER_18_112
*908 FILLER_18_119
*909 FILLER_18_146
*910 FILLER_18_153
*911 FILLER_18_155
*912 FILLER_18_165
*913 FILLER_18_167
*914 FILLER_18_17
*915 FILLER_18_202
*916 FILLER_18_24
*917 FILLER_18_31
*918 FILLER_18_38
*919 FILLER_18_4
*920 FILLER_18_51
*921 FILLER_18_58
*922 FILLER_18_65
*923 FILLER_18_69
*924 FILLER_18_8
*925 FILLER_18_81
*926 FILLER_18_88
*927 FILLER_18_92
*928 FILLER_18_99
*929 FILLER_19_0
*930 FILLER_19_121
*931 FILLER_19_125
*932 FILLER_19_138
*933 FILLER_19_145
*934 FILLER_19_173
*935 FILLER_19_180
*936 FILLER_19_187
*937 FILLER_19_2
*938 FILLER_19_204
*939 FILLER_19_235
*940 FILLER_19_24
*941 FILLER_19_245
*942 FILLER_19_28
*943 FILLER_19_47
*944 FILLER_19_54
*945 FILLER_19_56
*946 FILLER_19_61
*947 FILLER_19_65
*948 FILLER_19_72
*949 FILLER_19_79
*950 FILLER_19_86
*951 FILLER_19_93
*952 FILLER_1_0
*953 FILLER_1_110
*954 FILLER_1_112
*955 FILLER_1_132
*956 FILLER_1_14
*957 FILLER_1_145
*958 FILLER_1_209
*959 FILLER_1_21
*960 FILLER_1_213
*961 FILLER_1_245
*962 FILLER_1_28
*963 FILLER_1_32
*964 FILLER_1_48
*965 FILLER_1_50
*966 FILLER_1_7
*967 FILLER_1_75
*968 FILLER_1_80
*969 FILLER_20_0
*970 FILLER_20_101
*971 FILLER_20_108
*972 FILLER_20_115
*973 FILLER_20_122
*974 FILLER_20_129
*975 FILLER_20_139
*976 FILLER_20_146
*977 FILLER_20_150
*978 FILLER_20_236
*979 FILLER_20_25
*980 FILLER_20_32
*981 FILLER_20_51
*982 FILLER_20_74
*983 FILLER_20_81
*984 FILLER_21_106
*985 FILLER_21_11
*986 FILLER_21_113
*987 FILLER_21_120
*988 FILLER_21_157
*989 FILLER_21_163
*990 FILLER_21_170
*991 FILLER_21_177
*992 FILLER_21_184
*993 FILLER_21_191
*994 FILLER_21_198
*995 FILLER_21_209
*996 FILLER_21_24
*997 FILLER_21_34
*998 FILLER_21_4
*999 FILLER_21_41
*1000 FILLER_21_57
*1001 FILLER_21_78
*1002 FILLER_21_85
*1003 FILLER_21_92
*1004 FILLER_21_99
*1005 FILLER_22_0
*1006 FILLER_22_100
*1007 FILLER_22_105
*1008 FILLER_22_111
*1009 FILLER_22_118
*1010 FILLER_22_125
*1011 FILLER_22_144
*1012 FILLER_22_148
*1013 FILLER_22_154
*1014 FILLER_22_16
*1015 FILLER_22_161
*1016 FILLER_22_168
*1017 FILLER_22_175
*1018 FILLER_22_182
*1019 FILLER_22_189
*1020 FILLER_22_193
*1021 FILLER_22_203
*1022 FILLER_22_205
*1023 FILLER_22_29
*1024 FILLER_22_36
*1025 FILLER_22_43
*1026 FILLER_22_50
*1027 FILLER_22_57
*1028 FILLER_22_64
*1029 FILLER_22_7
*1030 FILLER_22_71
*1031 FILLER_22_78
*1032 FILLER_22_85
*1033 FILLER_22_92
*1034 FILLER_22_94
*1035 FILLER_23_124
*1036 FILLER_23_142
*1037 FILLER_23_149
*1038 FILLER_23_156
*1039 FILLER_23_158
*1040 FILLER_23_195
*1041 FILLER_23_201
*1042 FILLER_23_208
*1043 FILLER_23_25
*1044 FILLER_23_32
*1045 FILLER_23_45
*1046 FILLER_23_52
*1047 FILLER_23_59
*1048 FILLER_23_66
*1049 FILLER_23_74
*1050 FILLER_23_83
*1051 FILLER_23_87
*1052 FILLER_24_0
*1053 FILLER_24_102
*1054 FILLER_24_11
*1055 FILLER_24_149
*1056 FILLER_24_194
*1057 FILLER_24_21
*1058 FILLER_24_53
*1059 FILLER_24_60
*1060 FILLER_24_64
*1061 FILLER_24_7
*1062 FILLER_24_85
*1063 FILLER_24_92
*1064 FILLER_24_96
*1065 FILLER_25_0
*1066 FILLER_25_105
*1067 FILLER_25_113
*1068 FILLER_25_115
*1069 FILLER_25_119
*1070 FILLER_25_129
*1071 FILLER_25_14
*1072 FILLER_25_141
*1073 FILLER_25_183
*1074 FILLER_25_187
*1075 FILLER_25_204
*1076 FILLER_25_21
*1077 FILLER_25_25
*1078 FILLER_25_35
*1079 FILLER_25_42
*1080 FILLER_25_49
*1081 FILLER_25_56
*1082 FILLER_25_7
*1083 FILLER_25_70
*1084 FILLER_25_79
*1085 FILLER_25_86
*1086 FILLER_25_90
*1087 FILLER_26_0
*1088 FILLER_26_122
*1089 FILLER_26_129
*1090 FILLER_26_136
*1091 FILLER_26_14
*1092 FILLER_26_140
*1093 FILLER_26_178
*1094 FILLER_26_185
*1095 FILLER_26_193
*1096 FILLER_26_199
*1097 FILLER_26_206
*1098 FILLER_26_208
*1099 FILLER_26_21
*1100 FILLER_26_246
*1101 FILLER_26_28
*1102 FILLER_26_40
*1103 FILLER_26_42
*1104 FILLER_26_48
*1105 FILLER_26_55
*1106 FILLER_26_69
*1107 FILLER_26_7
*1108 FILLER_26_71
*1109 FILLER_26_81
*1110 FILLER_26_83
*1111 FILLER_27_0
*1112 FILLER_27_120
*1113 FILLER_27_127
*1114 FILLER_27_129
*1115 FILLER_27_133
*1116 FILLER_27_137
*1117 FILLER_27_14
*1118 FILLER_27_144
*1119 FILLER_27_146
*1120 FILLER_27_151
*1121 FILLER_27_153
*1122 FILLER_27_205
*1123 FILLER_27_21
*1124 FILLER_27_212
*1125 FILLER_27_214
*1126 FILLER_27_222
*1127 FILLER_27_230
*1128 FILLER_27_237
*1129 FILLER_27_241
*1130 FILLER_27_25
*1131 FILLER_27_46
*1132 FILLER_27_64
*1133 FILLER_27_7
*1134 FILLER_27_79
*1135 FILLER_28_0
*1136 FILLER_28_100
*1137 FILLER_28_138
*1138 FILLER_28_14
*1139 FILLER_28_140
*1140 FILLER_28_155
*1141 FILLER_28_176
*1142 FILLER_28_209
*1143 FILLER_28_21
*1144 FILLER_28_225
*1145 FILLER_28_232
*1146 FILLER_28_239
*1147 FILLER_28_246
*1148 FILLER_28_28
*1149 FILLER_28_30
*1150 FILLER_28_44
*1151 FILLER_28_49
*1152 FILLER_28_51
*1153 FILLER_28_64
*1154 FILLER_28_7
*1155 FILLER_29_0
*1156 FILLER_29_109
*1157 FILLER_29_14
*1158 FILLER_29_21
*1159 FILLER_29_230
*1160 FILLER_29_237
*1161 FILLER_29_244
*1162 FILLER_29_246
*1163 FILLER_29_28
*1164 FILLER_29_35
*1165 FILLER_29_42
*1166 FILLER_29_49
*1167 FILLER_29_56
*1168 FILLER_29_63
*1169 FILLER_29_7
*1170 FILLER_29_70
*1171 FILLER_29_74
*1172 FILLER_2_0
*1173 FILLER_2_108
*1174 FILLER_2_115
*1175 FILLER_2_124
*1176 FILLER_2_14
*1177 FILLER_2_143
*1178 FILLER_2_153
*1179 FILLER_2_197
*1180 FILLER_2_21
*1181 FILLER_2_210
*1182 FILLER_2_28
*1183 FILLER_2_50
*1184 FILLER_2_7
*1185 FILLER_2_74
*1186 FILLER_2_94
*1187 FILLER_2_98
*1188 FILLER_30_0
*1189 FILLER_30_105
*1190 FILLER_30_14
*1191 FILLER_30_145
*1192 FILLER_30_155
*1193 FILLER_30_173
*1194 FILLER_30_192
*1195 FILLER_30_194
*1196 FILLER_30_21
*1197 FILLER_30_212
*1198 FILLER_30_219
*1199 FILLER_30_226
*1200 FILLER_30_233
*1201 FILLER_30_240
*1202 FILLER_30_28
*1203 FILLER_30_35
*1204 FILLER_30_42
*1205 FILLER_30_49
*1206 FILLER_30_56
*1207 FILLER_30_63
*1208 FILLER_30_7
*1209 FILLER_30_70
*1210 FILLER_30_77
*1211 FILLER_30_84
*1212 FILLER_30_88
*1213 FILLER_30_98
*1214 FILLER_3_0
*1215 FILLER_3_106
*1216 FILLER_3_113
*1217 FILLER_3_124
*1218 FILLER_3_131
*1219 FILLER_3_14
*1220 FILLER_3_140
*1221 FILLER_3_142
*1222 FILLER_3_159
*1223 FILLER_3_170
*1224 FILLER_3_21
*1225 FILLER_3_219
*1226 FILLER_3_221
*1227 FILLER_3_245
*1228 FILLER_3_30
*1229 FILLER_3_37
*1230 FILLER_3_50
*1231 FILLER_3_57
*1232 FILLER_3_64
*1233 FILLER_3_7
*1234 FILLER_3_71
*1235 FILLER_3_78
*1236 FILLER_3_85
*1237 FILLER_3_99
*1238 FILLER_4_0
*1239 FILLER_4_111
*1240 FILLER_4_118
*1241 FILLER_4_122
*1242 FILLER_4_14
*1243 FILLER_4_142
*1244 FILLER_4_149
*1245 FILLER_4_156
*1246 FILLER_4_163
*1247 FILLER_4_18
*1248 FILLER_4_190
*1249 FILLER_4_200
*1250 FILLER_4_214
*1251 FILLER_4_23
*1252 FILLER_4_27
*1253 FILLER_4_33
*1254 FILLER_4_40
*1255 FILLER_4_47
*1256 FILLER_4_51
*1257 FILLER_4_56
*1258 FILLER_4_69
*1259 FILLER_4_7
*1260 FILLER_4_76
*1261 FILLER_4_83
*1262 FILLER_4_92
*1263 FILLER_4_96
*1264 FILLER_5_108
*1265 FILLER_5_115
*1266 FILLER_5_13
*1267 FILLER_5_15
*1268 FILLER_5_177
*1269 FILLER_5_179
*1270 FILLER_5_196
*1271 FILLER_5_246
*1272 FILLER_5_37
*1273 FILLER_5_4
*1274 FILLER_5_44
*1275 FILLER_5_57
*1276 FILLER_5_63
*1277 FILLER_5_80
*1278 FILLER_5_99
*1279 FILLER_6_0
*1280 FILLER_6_101
*1281 FILLER_6_103
*1282 FILLER_6_112
*1283 FILLER_6_119
*1284 FILLER_6_127
*1285 FILLER_6_136
*1286 FILLER_6_138
*1287 FILLER_6_147
*1288 FILLER_6_189
*1289 FILLER_6_21
*1290 FILLER_6_25
*1291 FILLER_6_35
*1292 FILLER_6_37
*1293 FILLER_6_50
*1294 FILLER_6_52
*1295 FILLER_6_57
*1296 FILLER_6_64
*1297 FILLER_6_71
*1298 FILLER_6_76
*1299 FILLER_6_83
*1300 FILLER_6_87
*1301 FILLER_7_0
*1302 FILLER_7_105
*1303 FILLER_7_112
*1304 FILLER_7_119
*1305 FILLER_7_126
*1306 FILLER_7_133
*1307 FILLER_7_140
*1308 FILLER_7_156
*1309 FILLER_7_160
*1310 FILLER_7_170
*1311 FILLER_7_177
*1312 FILLER_7_179
*1313 FILLER_7_2
*1314 FILLER_7_245
*1315 FILLER_7_28
*1316 FILLER_7_35
*1317 FILLER_7_42
*1318 FILLER_7_46
*1319 FILLER_7_61
*1320 FILLER_7_65
*1321 FILLER_7_86
*1322 FILLER_7_93
*1323 FILLER_8_0
*1324 FILLER_8_105
*1325 FILLER_8_124
*1326 FILLER_8_135
*1327 FILLER_8_163
*1328 FILLER_8_170
*1329 FILLER_8_177
*1330 FILLER_8_181
*1331 FILLER_8_19
*1332 FILLER_8_193
*1333 FILLER_8_211
*1334 FILLER_8_26
*1335 FILLER_8_39
*1336 FILLER_8_46
*1337 FILLER_8_60
*1338 FILLER_8_67
*1339 FILLER_8_7
*1340 FILLER_8_89
*1341 FILLER_8_9
*1342 FILLER_9_123
*1343 FILLER_9_13
*1344 FILLER_9_130
*1345 FILLER_9_137
*1346 FILLER_9_15
*1347 FILLER_9_150
*1348 FILLER_9_152
*1349 FILLER_9_163
*1350 FILLER_9_165
*1351 FILLER_9_180
*1352 FILLER_9_182
*1353 FILLER_9_203
*1354 FILLER_9_21
*1355 FILLER_9_237
*1356 FILLER_9_28
*1357 FILLER_9_35
*1358 FILLER_9_4
*1359 FILLER_9_49
*1360 FILLER_9_69
*1361 FILLER_9_76
*1362 FILLER_9_8
*1363 FILLER_9_83
*1364 FILLER_9_90
*1365 FILLER_9_97
*1366 _0494_
*1367 _0495_
*1368 _0496_
*1369 _0497_
*1370 _0498_
*1371 _0499_
*1372 _0500_
*1373 _0501_
*1374 _0502_
*1375 _0503_
*1376 _0504_
*1377 _0505_
*1378 _0506_
*1379 _0507_
*1380 _0508_
*1381 _0509_
*1382 _0510_
*1383 _0511_
*1384 _0512_
*1385 _0513_
*1386 _0514_
*1387 _0515_
*1388 _0516_
*1389 _0517_
*1390 _0518_
*1391 _0519_
*1392 _0520_
*1393 _0521_
*1394 _0522_
*1395 _0523_
*1396 _0524_
*1397 _0525_
*1398 _0526_
*1399 _0527_
*1400 _0528_
*1401 _0529_
*1402 _0530_
*1403 _0531_
*1404 _0532_
*1405 _0533_
*1406 _0534_
*1407 _0535_
*1408 _0536_
*1409 _0537_
*1410 _0538_
*1411 _0539_
*1412 _0540_
*1413 _0541_
*1414 _0542_
*1415 _0543_
*1416 _0544_
*1417 _0545_
*1418 _0546_
*1419 _0547_
*1420 _0548_
*1421 _0549_
*1422 _0550_
*1423 _0551_
*1424 _0552_
*1425 _0553_
*1426 _0554_
*1427 _0555_
*1428 _0556_
*1429 _0557_
*1430 _0558_
*1431 _0559_
*1432 _0560_
*1433 _0561_
*1434 _0562_
*1435 _0563_
*1436 _0564_
*1437 _0565_
*1438 _0566_
*1439 _0567_
*1440 _0568_
*1441 _0569_
*1442 _0570_
*1443 _0571_
*1444 _0572_
*1445 _0573_
*1446 _0574_
*1447 _0575_
*1448 _0576_
*1449 _0577_
*1450 _0578_
*1451 _0579_
*1452 _0580_
*1453 _0581_
*1454 _0582_
*1455 _0583_
*1456 _0584_
*1457 _0585_
*1458 _0586_
*1459 _0587_
*1460 _0588_
*1461 _0589_
*1462 _0590_
*1463 _0591_
*1464 _0592_
*1465 _0593_
*1466 _0594_
*1467 _0595_
*1468 _0596_
*1469 _0597_
*1470 _0598_
*1471 _0599_
*1472 _0600_
*1473 _0601_
*1474 _0602_
*1475 _0603_
*1476 _0604_
*1477 _0605_
*1478 _0606_
*1479 _0607_
*1480 _0608_
*1481 _0609_
*1482 _0610_
*1483 _0611_
*1484 _0612_
*1485 _0613_
*1486 _0614_
*1487 _0615_
*1488 _0616_
*1489 _0617_
*1490 _0618_
*1491 _0619_
*1492 _0620_
*1493 _0621_
*1494 _0622_
*1495 _0623_
*1496 _0624_
*1497 _0625_
*1498 _0626_
*1499 _0627_
*1500 _0628_
*1501 _0629_
*1502 _0630_
*1503 _0631_
*1504 _0632_
*1505 _0633_
*1506 _0634_
*1507 _0635_
*1508 _0636_
*1509 _0637_
*1510 _0638_
*1511 _0639_
*1512 _0640_
*1513 _0641_
*1514 _0642_
*1515 _0643_
*1516 _0644_
*1517 _0645_
*1518 _0646_
*1519 _0647_
*1520 _0648_
*1521 _0649_
*1522 _0650_
*1523 _0651_
*1524 _0652_
*1525 _0653_
*1526 _0654_
*1527 _0655_
*1528 _0656_
*1529 _0657_
*1530 _0658_
*1531 _0659_
*1532 _0660_
*1533 _0661_
*1534 _0662_
*1535 _0663_
*1536 _0664_
*1537 _0665_
*1538 _0666_
*1539 _0667_
*1540 _0668_
*1541 _0669_
*1542 _0670_
*1543 _0671_
*1544 _0672_
*1545 _0673_
*1546 _0674_
*1547 _0675_
*1548 _0676_
*1549 _0677_
*1550 _0678_
*1551 _0679_
*1552 _0680_
*1553 _0681_
*1554 _0682_
*1555 _0683_
*1556 _0684_
*1557 _0685_
*1558 _0686_
*1559 _0687_
*1560 _0688_
*1561 _0689_
*1562 _0690_
*1563 _0691_
*1564 _0692_
*1565 _0693_
*1566 _0694_
*1567 _0695_
*1568 _0696_
*1569 _0697_
*1570 _0698_
*1571 _0699_
*1572 _0700_
*1573 _0701_
*1574 _0702_
*1575 _0703_
*1576 _0704_
*1577 _0705_
*1578 _0706_
*1579 _0707_
*1580 _0708_
*1581 _0709_
*1582 _0710_
*1583 _0711_
*1584 _0712_
*1585 _0713_
*1586 _0714_
*1587 _0715_
*1588 _0716_
*1589 _0717_
*1590 _0718_
*1591 _0719_
*1592 _0720_
*1593 _0721_
*1594 _0722_
*1595 _0723_
*1596 _0724_
*1597 _0725_
*1598 _0726_
*1599 _0727_
*1600 _0728_
*1601 _0729_
*1602 _0730_
*1603 _0731_
*1604 _0732_
*1605 _0733_
*1606 _0734_
*1607 _0735_
*1608 _0736_
*1609 _0737_
*1610 _0738_
*1611 _0739_
*1612 _0740_
*1613 _0741_
*1614 _0742_
*1615 _0743_
*1616 _0744_
*1617 _0745_
*1618 _0746_
*1619 _0747_
*1620 _0748_
*1621 _0749_
*1622 _0750_
*1623 _0751_
*1624 _0752_
*1625 _0753_
*1626 _0754_
*1627 _0755_
*1628 _0756_
*1629 _0757_
*1630 _0758_
*1631 _0759_
*1632 _0760_
*1633 _0761_
*1634 _0762_
*1635 _0763_
*1636 _0764_
*1637 _0765_
*1638 _0766_
*1639 _0767_
*1640 _0768_
*1641 _0769_
*1642 _0770_
*1643 _0771_
*1644 _0772_
*1645 _0773_
*1646 _0774_
*1647 _0775_
*1648 _0776_
*1649 _0777_
*1650 _0778_
*1651 _0779_
*1652 _0780_
*1653 _0781_
*1654 _0782_
*1655 _0783_
*1656 _0784_
*1657 _0785_
*1658 _0786_
*1659 _0787_
*1660 _0788_
*1661 _0789_
*1662 _0790_
*1663 _0791_
*1664 _0792_
*1665 _0793_
*1666 _0794_
*1667 _0795_
*1668 _0796_
*1669 _0797_
*1670 _0798_
*1671 _0799_
*1672 _0800_
*1673 _0801_
*1674 _0802_
*1675 _0803_
*1676 _0804_
*1677 _0805_
*1678 _0806_
*1679 _0807_
*1680 _0808_
*1681 _0809_
*1682 _0810_
*1683 _0811_
*1684 _0812_
*1685 _0813_
*1686 _0814_
*1687 _0815_
*1688 _0816_
*1689 _0817_
*1690 _0818_
*1691 _0819_
*1692 _0820_
*1693 _0821_
*1694 _0822_
*1695 _0823_
*1696 _0824_
*1697 _0825_
*1698 _0826_
*1699 _0827_
*1700 _0828_
*1701 _0829_
*1702 _0830_
*1703 _0831_
*1704 _0832_
*1705 _0833_
*1706 _0834_
*1707 _0835_
*1708 _0836_
*1709 _0837_
*1710 _0838_
*1711 _0839_
*1712 _0840_
*1713 _0841_
*1714 _0842_
*1715 _0843_
*1716 _0844_
*1717 _0845_
*1718 _0846_
*1719 _0847_
*1720 _0848_
*1721 _0849_
*1722 _0850_
*1723 _0851_
*1724 _0852_
*1725 _0853_
*1726 _0854_
*1727 _0855_
*1728 _0856_
*1729 _0857_
*1730 _0858_
*1731 _0859_
*1732 _0860_
*1733 _0861_
*1734 _0862_
*1735 _0863_
*1736 _0864_
*1737 _0865_
*1738 _0866_
*1739 _0867_
*1740 _0868_
*1741 _0869_
*1742 _0870_
*1743 _0871_
*1744 _0872_
*1745 _0873_
*1746 _0874_
*1747 _0875_
*1748 _0876_
*1749 _0877_
*1750 _0878_
*1751 _0879_
*1752 _0880_
*1753 _0881_
*1754 _0882_
*1755 _0883_
*1756 _0884_
*1757 _0885_
*1758 _0886_
*1759 _0887_
*1760 _0888_
*1761 _0889_
*1762 _0890_
*1763 _0891_
*1764 _0892_
*1765 _0893_
*1766 _0894_
*1767 _0895_
*1768 _0896_
*1769 _0897_
*1770 _0898_
*1771 _0899_
*1772 _0900_
*1773 _0901_
*1774 _0902_
*1775 _0903_
*1776 _0904_
*1777 _0905_
*1778 _0906_
*1779 _0907_
*1780 _0908_
*1781 _0909_
*1782 _0910_
*1783 _0911_
*1784 _0912_
*1785 _0913_
*1786 _0914_
*1787 _0915_
*1788 _0916_
*1789 _0917_
*1790 _0918_
*1791 _0919_
*1792 _0920_
*1793 _0921_
*1794 _0922_
*1795 _0923_
*1796 _0924_
*1797 _0925_
*1798 _0926_
*1799 _0927_
*1800 _0928_
*1801 _0929_
*1802 _0930_
*1803 _0931_
*1804 _0932_
*1805 _0933_
*1806 _0934_
*1807 _0935_
*1808 _0936_
*1809 _0937_
*1810 _0938_
*1811 _0939_
*1812 _0940_
*1813 _0941_
*1814 _0942_
*1815 _0943_
*1816 _0944_
*1817 _0945_
*1818 _0946_
*1819 _0947_
*1820 _0948_
*1821 _0949_
*1822 _0950_
*1823 _0951_
*1824 _0952_
*1825 _0953_
*1826 _0954_
*1827 _0955_
*1828 _0956_
*1829 _0957_
*1830 _0958_
*1831 _0959_
*1832 _0960_
*1833 _0961_
*1834 _0962_
*1835 _0963_
*1836 _0964_
*1837 _0965_
*1838 _0966_
*1839 _0967_
*1840 _0968_
*1841 _0969_
*1842 _0970_
*1843 _0971_
*1844 _0972_
*1845 _0973_
*1846 _0974_
*1847 _0975_
*1848 _0976_
*1849 _0977_
*1850 _0978_
*1851 _0979_
*1852 _0980_
*1853 _0981_
*1854 _0982_
*1855 _0983_
*1856 _0984_
*1857 _0985_
*1858 _0986_
*1859 _0987_
*1860 _0988_
*1861 _0989_
*1862 _0990_
*1863 _0991_
*1864 _0992_
*1865 _0993_
*1866 _0994_
*1867 _0995_
*1868 _0996_
*1869 _0997_
*1870 _0998_
*1871 _0999_
*1872 _1000_
*1873 _1001_
*1874 _1002_
*1875 _1003_
*1876 _1004_
*1877 _1005_
*1878 _1006_
*1879 _1007_
*1880 _1008_
*1881 _1009_
*1882 _1010_
*1883 _1011_
*1884 _1012_
*1885 _1013_
*1886 _1014_
*1887 _1015_
*1888 _1016_
*1889 _1017_
*1890 _1018_
*1891 _1019_
*1892 _1020_
*1893 _1021_
*1894 _1022_
*1895 _1023_
*1896 _1024_
*1897 _1025_
*1898 _1026_
*1899 _1027_
*1900 _1028_
*1901 _1029_
*1902 _1030_
*1903 clkbuf_0_clk
*1904 clkbuf_3_0__f_clk
*1905 clkbuf_3_1__f_clk
*1906 clkbuf_3_2__f_clk
*1907 clkbuf_3_3__f_clk
*1908 clkbuf_3_4__f_clk
*1909 clkbuf_3_5__f_clk
*1910 clkbuf_3_6__f_clk
*1911 clkbuf_3_7__f_clk
*1912 clkload0
*1913 clkload1
*1914 clkload2
*1915 clkload3
*1916 clkload4
*1917 fanout62
*1918 fanout63
*1919 fanout64
*1920 fanout65
*1921 fanout66
*1922 fanout67
*1923 fanout68
*1924 fanout69
*1925 fanout70
*1926 fanout71
*1927 fanout72
*1928 fanout73
*1929 fanout74
*1930 fanout75
*1931 fanout76
*1932 fanout77
*1933 fanout78
*1934 fanout79
*1935 fanout80
*1936 fanout81
*1937 fanout82
*1938 fanout83
*1939 fanout84
*1940 fanout85
*1941 fanout86
*1942 fanout87
*1943 fanout88
*1944 fanout89
*1945 fanout90
*1946 fanout91
*1947 fanout92
*1948 hold100
*1949 hold101
*1950 hold102
*1951 hold103
*1952 hold104
*1953 hold105
*1954 hold106
*1955 hold107
*1956 hold108
*1957 hold109
*1958 hold110
*1959 hold111
*1960 hold112
*1961 hold113
*1962 hold114
*1963 hold115
*1964 hold116
*1965 hold117
*1966 hold118
*1967 hold119
*1968 hold120
*1969 hold121
*1970 hold122
*1971 hold123
*1972 hold124
*1973 hold125
*1974 hold126
*1975 hold127
*1976 hold128
*1977 hold129
*1978 hold130
*1979 hold131
*1980 hold132
*1981 hold133
*1982 hold134
*1983 hold135
*1984 hold136
*1985 hold137
*1986 hold138
*1987 hold139
*1988 hold140
*1989 hold141
*1990 hold142
*1991 hold143
*1992 hold144
*1993 hold145
*1994 hold146
*1995 hold147
*1996 hold148
*1997 hold149
*1998 hold150
*1999 hold151
*2000 hold152
*2001 hold153
*2002 hold154
*2003 hold155
*2004 hold156
*2005 hold93
*2006 hold94
*2007 hold95
*2008 hold96
*2009 hold97
*2010 hold98
*2011 hold99
*2012 input1
*2013 input10
*2014 input11
*2015 input12
*2016 input13
*2017 input14
*2018 input15
*2019 input16
*2020 input17
*2021 input18
*2022 input2
*2023 input3
*2024 input4
*2025 input5
*2026 input6
*2027 input7
*2028 input8
*2029 input9
*2030 output19